
OS:Version,
  {e799c94d-7950-4a82-bc74-635dd61cfb06}, !- Handle
  2.9.0;                                  !- Version Identifier

OS:Schedule:Ruleset,
  {2c940045-acb3-429d-974e-30a7a792c982}, ! Handle
  Common Area  Light,                     ! Name
  {46639c15-3d9e-445e-bf44-62058e5636d7}, ! Schedule Type Limits Name
  {f527ce9d-9816-4782-9799-67e4e81510db}, ! Default Day Schedule Name
  {1e5fadd7-0f69-4049-94f9-be070e42cd9b}, ! Summer Design Day Schedule Name
  {f1d6d84f-b3ca-4a56-9fb6-be0771a24ee7}; ! Winter Design Day Schedule Name

OS:ScheduleTypeLimits,
  {46639c15-3d9e-445e-bf44-62058e5636d7}, ! Handle
  Fraction,                               ! Name
  0,                                      ! Lower Limit Value
  1,                                      ! Upper Limit Value
  CONTINUOUS;                             ! Numeric Type

OS:Schedule:Day,
  {f527ce9d-9816-4782-9799-67e4e81510db}, ! Handle
  Office Bldg Light Default Schedule,     ! Name
  {46639c15-3d9e-445e-bf44-62058e5636d7}, ! Schedule Type Limits Name
  ,                                       ! Interpolate to Timestep
  5,                                      !- Hour 1
  0,                                      !- Minute 1
  0.0500000007450581,                     !- Value Until Time 1
  7,                                      !- Hour 2
  0,                                      !- Minute 2
  0.100000001490116,                      !- Value Until Time 2
  8,                                      !- Hour 3
  0,                                      !- Minute 3
  0.300000011920929,                      !- Value Until Time 3
  17,                                     !- Hour 4
  0,                                      !- Minute 4
  0.899999976158142,                      !- Value Until Time 4
  18,                                     !- Hour 5
  0,                                      !- Minute 5
  0.699999988079071,                      !- Value Until Time 5
  20,                                     !- Hour 6
  0,                                      !- Minute 6
  0.5,                                    !- Value Until Time 6
  22,                                     !- Hour 7
  0,                                      !- Minute 7
  0.300000011920929,                      !- Value Until Time 7
  23,                                     !- Hour 8
  0,                                      !- Minute 8
  0.100000001490116,                      !- Value Until Time 8
  24,                                     !- Hour 9
  0,                                      !- Minute 9
  0.0500000007450581;                     !- Value Until Time 9

OS:Schedule:Day,
  {1e5fadd7-0f69-4049-94f9-be070e42cd9b}, ! Handle
  Office Bldg Light Summer Design Day,    ! Name
  {46639c15-3d9e-445e-bf44-62058e5636d7}, ! Schedule Type Limits Name
  ,                                       ! Interpolate to Timestep
  24,                                     ! Hour 1
  0,                                      ! Minute 1
  1;                                      ! Value Until Time 1

OS:Schedule:Day,
  {f1d6d84f-b3ca-4a56-9fb6-be0771a24ee7}, ! Handle
  Office Bldg Light Winter Design Day,    ! Name
  {46639c15-3d9e-445e-bf44-62058e5636d7}, ! Schedule Type Limits Name
  ,                                       ! Interpolate to Timestep
  24,                                     ! Hour 1
  0,                                      ! Minute 1
  0;                                      ! Value Until Time 1

OS:Schedule:Rule,
  {908b277a-17ad-43e5-8ca0-e1d276873fc0}, ! Handle
  Office Bldg Light Rule 1,               ! Name
  {2c940045-acb3-429d-974e-30a7a792c982}, ! Schedule Ruleset Name
  0,                                      ! Rule Order
  {f781a329-5fd9-4e85-a1ef-b4bef14b48ef}, ! Day Schedule Name
  Yes,                                    ! Apply Sunday
  No,                                     ! Apply Monday
  No,                                     ! Apply Tuesday
  No,                                     ! Apply Wednesday
  No,                                     ! Apply Thursday
  No,                                     ! Apply Friday
  No,                                     ! Apply Saturday
  ,                                       ! Apply Holiday
  DateRange,                              ! Date Specification Type
  1,                                      ! Start Month
  1,                                      ! Start Day
  12,                                     ! End Month
  31;                                     ! End Day

OS:Schedule:Day,
  {f781a329-5fd9-4e85-a1ef-b4bef14b48ef}, ! Handle
  Office Bldg Light Rule 1 Day Schedule,  ! Name
  {46639c15-3d9e-445e-bf44-62058e5636d7}, ! Schedule Type Limits Name
  ,                                       ! Interpolate to Timestep
  24,                                     ! Hour 1
  0,                                      ! Minute 1
  0.050000000000000003;                   ! Value Until Time 1

OS:Schedule:Rule,
  {58f59580-2b1c-4b49-8761-6e97b4f06a41}, ! Handle
  Office Bldg Light Rule 2,               ! Name
  {2c940045-acb3-429d-974e-30a7a792c982}, ! Schedule Ruleset Name
  1,                                      ! Rule Order
  {d19a64b1-fd5a-4540-b6d8-57bf21de3b30}, ! Day Schedule Name
  No,                                     ! Apply Sunday
  No,                                     ! Apply Monday
  No,                                     ! Apply Tuesday
  No,                                     ! Apply Wednesday
  No,                                     ! Apply Thursday
  No,                                     ! Apply Friday
  Yes,                                    ! Apply Saturday
  ,                                       ! Apply Holiday
  DateRange,                              ! Date Specification Type
  1,                                      ! Start Month
  1,                                      ! Start Day
  12,                                     ! End Month
  31;                                     ! End Day

OS:Schedule:Day,
  {d19a64b1-fd5a-4540-b6d8-57bf21de3b30}, ! Handle
  Office Bldg Light Rule 2 Day Schedule,  ! Name
  {46639c15-3d9e-445e-bf44-62058e5636d7}, ! Schedule Type Limits Name
  ,                                       ! Interpolate to Timestep
  6,                                      ! Hour 1
  0,                                      ! Minute 1
  0.050000000000000003,                   ! Value Until Time 1
  8,                                      ! Hour 2
  0,                                      ! Minute 2
  0.10000000000000001,                    ! Value Until Time 2
  14,                                     ! Hour 3
  0,                                      ! Minute 3
  0.5,                                    ! Value Until Time 3
  17,                                     ! Hour 4
  0,                                      ! Minute 4
  0.14999999999999999,                    ! Value Until Time 4
  24,                                     ! Hour 5
  0,                                      ! Minute 5
  0.050000000000000003;                   ! Value Until Time 5

OS:Schedule:Ruleset,
  {57e1c24d-9d92-4abf-b5da-f09ece9870d2}, ! Handle
  Common Space Occ,                       ! Name
  {46639c15-3d9e-445e-bf44-62058e5636d7}, ! Schedule Type Limits Name
  {889bfb8a-8061-48b2-bcb4-c05c2404845f}, ! Default Day Schedule Name
  {0e24e94b-015e-4feb-a85b-f76842862d1e}, ! Summer Design Day Schedule Name
  {1a8a0f65-267d-4ea9-8175-002bf3fdd780}; ! Winter Design Day Schedule Name

OS:Schedule:Day,
  {889bfb8a-8061-48b2-bcb4-c05c2404845f}, ! Handle
  Office Bldg Occ Default Schedule 1,     ! Name
  {46639c15-3d9e-445e-bf44-62058e5636d7}, ! Schedule Type Limits Name
  ,                                       ! Interpolate to Timestep
  6,                                      !- Hour 1
  0,                                      !- Minute 1
  0,                                      !- Value Until Time 1
  7,                                      !- Hour 2
  0,                                      !- Minute 2
  0.100000001490116,                      !- Value Until Time 2
  8,                                      !- Hour 3
  0,                                      !- Minute 3
  0.200000002980232,                      !- Value Until Time 3
  14,                                     !- Hour 4
  0,                                      !- Minute 4
  0.400000005960464,                      !- Value Until Time 4
  18,                                     !- Hour 5
  0,                                      !- Minute 5
  0.100000001490116,                      !- Value Until Time 5
  21,                                     !- Hour 6
  0,                                      !- Minute 6
  0.400000005960464,                      !- Value Until Time 6
  22,                                     !- Hour 7
  0,                                      !- Minute 7
  0.100000001490116,                      !- Value Until Time 7
  24,                                     !- Hour 8
  0,                                      !- Minute 8
  0.0500000007450581;                     !- Value Until Time 8

OS:Schedule:Day,
  {0e24e94b-015e-4feb-a85b-f76842862d1e}, ! Handle
  Office Bldg Occ Summer Design Day 1,    ! Name
  {46639c15-3d9e-445e-bf44-62058e5636d7}, ! Schedule Type Limits Name
  ,                                       ! Interpolate to Timestep
  6,                                      ! Hour 1
  0,                                      ! Minute 1
  0,                                      ! Value Until Time 1
  22,                                     ! Hour 2
  0,                                      ! Minute 2
  1,                                      ! Value Until Time 2
  24,                                     ! Hour 3
  0,                                      ! Minute 3
  0.050000000000000003;                   ! Value Until Time 3

OS:Schedule:Day,
  {1a8a0f65-267d-4ea9-8175-002bf3fdd780}, ! Handle
  Office Bldg Occ Winter Design Day 1,    ! Name
  {46639c15-3d9e-445e-bf44-62058e5636d7}, ! Schedule Type Limits Name
  ,                                       ! Interpolate to Timestep
  24,                                     ! Hour 1
  0,                                      ! Minute 1
  0;                                      ! Value Until Time 1

OS:Schedule:Rule,
  {a97798e8-5429-4f50-b44e-dfb58ab1171e}, ! Handle
  Office Misc Occ Rule 1,                 ! Name
  {57e1c24d-9d92-4abf-b5da-f09ece9870d2}, ! Schedule Ruleset Name
  0,                                      ! Rule Order
  {67399e18-2529-4b87-8ea4-2dc28aff6617}, ! Day Schedule Name
  Yes,                                    ! Apply Sunday
  No,                                     ! Apply Monday
  No,                                     ! Apply Tuesday
  No,                                     ! Apply Wednesday
  No,                                     ! Apply Thursday
  No,                                     ! Apply Friday
  No,                                     ! Apply Saturday
  ,                                       ! Apply Holiday
  DateRange,                              ! Date Specification Type
  1,                                      ! Start Month
  1,                                      ! Start Day
  12,                                     ! End Month
  31;                                     ! End Day

OS:Schedule:Day,
  {67399e18-2529-4b87-8ea4-2dc28aff6617}, ! Handle
  Office Bldg Occ Rule 1 Day Schedule 1,  ! Name
  {46639c15-3d9e-445e-bf44-62058e5636d7}, ! Schedule Type Limits Name
  ,                                       ! Interpolate to Timestep
  24,                                     ! Hour 1
  0,                                      ! Minute 1
  0;                                      ! Value Until Time 1

OS:Schedule:Rule,
  {6b831ffb-ef84-4a8a-a32f-d7d10b547a0e}, ! Handle
  Office Misc Occ Rule 2,                 ! Name
  {57e1c24d-9d92-4abf-b5da-f09ece9870d2}, ! Schedule Ruleset Name
  1,                                      ! Rule Order
  {ee72aee8-eeaf-433a-9e3e-619a532596a3}, ! Day Schedule Name
  No,                                     ! Apply Sunday
  No,                                     ! Apply Monday
  No,                                     ! Apply Tuesday
  No,                                     ! Apply Wednesday
  No,                                     ! Apply Thursday
  No,                                     ! Apply Friday
  Yes,                                    ! Apply Saturday
  ,                                       ! Apply Holiday
  DateRange,                              ! Date Specification Type
  1,                                      ! Start Month
  1,                                      ! Start Day
  12,                                     ! End Month
  31;                                     ! End Day

OS:Schedule:Day,
  {ee72aee8-eeaf-433a-9e3e-619a532596a3}, ! Handle
  Office Bldg Occ Rule 2 Day Schedule 1,  ! Name
  {46639c15-3d9e-445e-bf44-62058e5636d7}, ! Schedule Type Limits Name
  ,                                       ! Interpolate to Timestep
  6,                                      !- Hour 1
  0,                                      !- Minute 1
  0,                                      !- Value Until Time 1
  8,                                      !- Hour 2
  0,                                      !- Minute 2
  0.100000001490116,                      !- Value Until Time 2
  14,                                     !- Hour 3
  0,                                      !- Minute 3
  0.25,                                   !- Value Until Time 3
  17,                                     !- Hour 4
  0,                                      !- Minute 4
  0.100000001490116,                      !- Value Until Time 4
  24,                                     !- Hour 5
  0,                                      !- Minute 5
  0;                                      !- Value Until Time 5

OS:ScheduleTypeLimits,
  {115aba64-18e9-477b-9f56-bc49f71a3d65}, !- Handle
  ActivityLevel,                          !- Name
  0,                                      !- Lower Limit Value
  ,                                       !- Upper Limit Value
  Continuous,                             !- Numeric Type
  ActivityLevel;                          !- Unit Type

OS:Schedule:Ruleset,
  {f3007024-d8b2-4f63-80eb-68d25b3f311b}, ! Handle
  Office Infil Quarter On,                ! Name
  {46639c15-3d9e-445e-bf44-62058e5636d7}, ! Schedule Type Limits Name
  {0f0a4c58-d61a-4fe2-b785-c13d80aeae72}, ! Default Day Schedule Name
  {495fb1a4-73fa-4a01-9390-dc96865b0e10}, ! Summer Design Day Schedule Name
  {bf393fb4-114d-42cb-8f1a-062a9f6e9af6}; ! Winter Design Day Schedule Name

OS:Schedule:Day,
  {0f0a4c58-d61a-4fe2-b785-c13d80aeae72}, ! Handle
  Office Infil Quarter On Default Schedule, ! Name
  {46639c15-3d9e-445e-bf44-62058e5636d7}, ! Schedule Type Limits Name
  ,                                       ! Interpolate to Timestep
  6,                                      !- Hour 1
  0,                                      !- Minute 1
  1,                                      !- Value Until Time 1
  22,                                     !- Hour 2
  0,                                      !- Minute 2
  0.25,                                   !- Value Until Time 2
  24,                                     !- Hour 3
  0,                                      !- Minute 3
  1;                                      !- Value Until Time 3

OS:Schedule:Day,
  {495fb1a4-73fa-4a01-9390-dc96865b0e10}, ! Handle
  Office Infil Quarter On Summer Design Day, ! Name
  {46639c15-3d9e-445e-bf44-62058e5636d7}, ! Schedule Type Limits Name
  ,                                       ! Interpolate to Timestep
  6,                                      ! Hour 1
  0,                                      ! Minute 1
  1,                                      ! Value Until Time 1
  22,                                     ! Hour 2
  0,                                      ! Minute 2
  0.25,                                   ! Value Until Time 2
  24,                                     ! Hour 3
  0,                                      ! Minute 3
  1;                                      ! Value Until Time 3

OS:Schedule:Day,
  {bf393fb4-114d-42cb-8f1a-062a9f6e9af6}, ! Handle
  Office Infil Quarter On Winter Design Day, ! Name
  {46639c15-3d9e-445e-bf44-62058e5636d7}, ! Schedule Type Limits Name
  ,                                       ! Interpolate to Timestep
  6,                                      ! Hour 1
  0,                                      ! Minute 1
  1,                                      ! Value Until Time 1
  18,                                     ! Hour 2
  0,                                      ! Minute 2
  0.25,                                   ! Value Until Time 2
  24,                                     ! Hour 3
  0,                                      ! Minute 3
  1;                                      ! Value Until Time 3

OS:Schedule:Rule,
  {669f6450-48fd-4c9f-aa54-cb0a65aaaea4}, ! Handle
  Office Infil Quarter On Rule 1,         ! Name
  {f3007024-d8b2-4f63-80eb-68d25b3f311b}, ! Schedule Ruleset Name
  0,                                      ! Rule Order
  {a70ff7aa-e531-409d-9b14-d76d8b3d2fcd}, ! Day Schedule Name
  Yes,                                    ! Apply Sunday
  No,                                     ! Apply Monday
  No,                                     ! Apply Tuesday
  No,                                     ! Apply Wednesday
  No,                                     ! Apply Thursday
  No,                                     ! Apply Friday
  No,                                     ! Apply Saturday
  ,                                       ! Apply Holiday
  DateRange,                              ! Date Specification Type
  1,                                      ! Start Month
  1,                                      ! Start Day
  12,                                     ! End Month
  31;                                     ! End Day

OS:Schedule:Day,
  {a70ff7aa-e531-409d-9b14-d76d8b3d2fcd}, ! Handle
  Office Infil Quarter On Rule 1 Day Schedule, ! Name
  {46639c15-3d9e-445e-bf44-62058e5636d7}, ! Schedule Type Limits Name
  ,                                       ! Interpolate to Timestep
  24,                                     ! Hour 1
  0,                                      ! Minute 1
  1;                                      ! Value Until Time 1

OS:Schedule:Rule,
  {0754978c-410e-49ee-a9fb-78c434aa0747}, ! Handle
  Office Infil Quarter On Rule 2,         ! Name
  {f3007024-d8b2-4f63-80eb-68d25b3f311b}, ! Schedule Ruleset Name
  1,                                      ! Rule Order
  {e0f7388a-c254-4ec7-be7c-4baf001742a7}, ! Day Schedule Name
  No,                                     ! Apply Sunday
  No,                                     ! Apply Monday
  No,                                     ! Apply Tuesday
  No,                                     ! Apply Wednesday
  No,                                     ! Apply Thursday
  No,                                     ! Apply Friday
  Yes,                                    ! Apply Saturday
  ,                                       ! Apply Holiday
  DateRange,                              ! Date Specification Type
  1,                                      ! Start Month
  1,                                      ! Start Day
  12,                                     ! End Month
  31;                                     ! End Day

OS:Schedule:Day,
  {e0f7388a-c254-4ec7-be7c-4baf001742a7}, ! Handle
  Office Infil Quarter On Rule 2 Day Schedule, ! Name
  {46639c15-3d9e-445e-bf44-62058e5636d7}, ! Schedule Type Limits Name
  ,                                       ! Interpolate to Timestep
  6,                                      ! Hour 1
  0,                                      ! Minute 1
  1,                                      ! Value Until Time 1
  18,                                     ! Hour 2
  0,                                      ! Minute 2
  0.25,                                   ! Value Until Time 2
  24,                                     ! Hour 3
  0,                                      ! Minute 3
  1;                                      ! Value Until Time 3

OS:Schedule:Ruleset,
  {88b4ac91-159f-4214-9ba7-aac28ba70021}, ! Handle
  Common Area Equip,                      ! Name
  {46639c15-3d9e-445e-bf44-62058e5636d7}, ! Schedule Type Limits Name
  {482623b1-c0bb-4a7b-844e-be61c3db495e}, ! Default Day Schedule Name
  {f3fed466-0fe5-4cd4-85d1-9a6851de4f45}, ! Summer Design Day Schedule Name
  {c07620c6-9e60-4460-8226-4ae184c20265}; ! Winter Design Day Schedule Name

OS:Schedule:Day,
  {482623b1-c0bb-4a7b-844e-be61c3db495e}, ! Handle
  Office Bldg Equip Default Schedule,     ! Name
  {46639c15-3d9e-445e-bf44-62058e5636d7}, ! Schedule Type Limits Name
  ,                                       ! Interpolate to Timestep
  6,                                      !- Hour 1
  0,                                      !- Minute 1
  0.100000001490116,                      !- Value Until Time 1
  7,                                      !- Hour 2
  0,                                      !- Minute 2
  0.300000011920929,                      !- Value Until Time 2
  10,                                     !- Hour 3
  0,                                      !- Minute 3
  0.449999988079071,                      !- Value Until Time 3
  18,                                     !- Hour 4
  0,                                      !- Minute 4
  0.300000011920929,                      !- Value Until Time 4
  19,                                     !- Hour 5
  0,                                      !- Minute 5
  0.600000023841858,                      !- Value Until Time 5
  20,                                     !- Hour 6
  0,                                      !- Minute 6
  0.800000011920929,                      !- Value Until Time 6
  21,                                     !- Hour 7
  0,                                      !- Minute 7
  0.899999976158142,                      !- Value Until Time 7
  22,                                     !- Hour 8
  0,                                      !- Minute 8
  0.800000011920929,                      !- Value Until Time 8
  23,                                     !- Hour 9
  0,                                      !- Minute 9
  0.600000023841858,                      !- Value Until Time 9
  24,                                     !- Hour 10
  0,                                      !- Minute 10
  0.300000011920929;                      !- Value Until Time 10

OS:Schedule:Day,
  {f3fed466-0fe5-4cd4-85d1-9a6851de4f45}, ! Handle
  Office Bldg Equip Summer Design Day,    ! Name
  {46639c15-3d9e-445e-bf44-62058e5636d7}, ! Schedule Type Limits Name
  ,                                       ! Interpolate to Timestep
  24,                                     ! Hour 1
  0,                                      ! Minute 1
  1;                                      ! Value Until Time 1

OS:Schedule:Day,
  {c07620c6-9e60-4460-8226-4ae184c20265}, ! Handle
  Office Bldg Equip Winter Design Day,    ! Name
  {46639c15-3d9e-445e-bf44-62058e5636d7}, ! Schedule Type Limits Name
  ,                                       ! Interpolate to Timestep
  24,                                     ! Hour 1
  0,                                      ! Minute 1
  0;                                      ! Value Until Time 1

OS:Schedule:Rule,
  {ef64122e-df93-4108-bfcf-d1233b552ebc}, ! Handle
  Office Bldg Equip Rule 1,               ! Name
  {88b4ac91-159f-4214-9ba7-aac28ba70021}, ! Schedule Ruleset Name
  0,                                      ! Rule Order
  {d3ee3a96-7374-4f52-a6f1-5d5d9202b8aa}, ! Day Schedule Name
  Yes,                                    ! Apply Sunday
  No,                                     ! Apply Monday
  No,                                     ! Apply Tuesday
  No,                                     ! Apply Wednesday
  No,                                     ! Apply Thursday
  No,                                     ! Apply Friday
  No,                                     ! Apply Saturday
  ,                                       ! Apply Holiday
  DateRange,                              ! Date Specification Type
  1,                                      ! Start Month
  1,                                      ! Start Day
  12,                                     ! End Month
  31;                                     ! End Day

OS:Schedule:Day,
  {d3ee3a96-7374-4f52-a6f1-5d5d9202b8aa}, ! Handle
  Office Bldg Equip Rule 1 Day Schedule,  ! Name
  {46639c15-3d9e-445e-bf44-62058e5636d7}, ! Schedule Type Limits Name
  ,                                       ! Interpolate to Timestep
  24,                                     ! Hour 1
  0,                                      ! Minute 1
  0.29999999999999999;                    ! Value Until Time 1

OS:Schedule:Rule,
  {148ecf7d-381b-405a-83e5-4dda8df23254}, ! Handle
  Office Bldg Equip Rule 2,               ! Name
  {88b4ac91-159f-4214-9ba7-aac28ba70021}, ! Schedule Ruleset Name
  1,                                      ! Rule Order
  {16910aad-aa54-450e-ad27-3d490c451dcb}, ! Day Schedule Name
  No,                                     ! Apply Sunday
  No,                                     ! Apply Monday
  No,                                     ! Apply Tuesday
  No,                                     ! Apply Wednesday
  No,                                     ! Apply Thursday
  No,                                     ! Apply Friday
  Yes,                                    ! Apply Saturday
  ,                                       ! Apply Holiday
  DateRange,                              ! Date Specification Type
  1,                                      ! Start Month
  1,                                      ! Start Day
  12,                                     ! End Month
  31;                                     ! End Day

OS:Schedule:Day,
  {16910aad-aa54-450e-ad27-3d490c451dcb}, ! Handle
  Office Bldg Equip Rule 2 Day Schedule,  ! Name
  {46639c15-3d9e-445e-bf44-62058e5636d7}, ! Schedule Type Limits Name
  ,                                       ! Interpolate to Timestep
  6,                                      ! Hour 1
  0,                                      ! Minute 1
  0.29999999999999999,                    ! Value Until Time 1
  8,                                      ! Hour 2
  0,                                      ! Minute 2
  0.40000000000000002,                    ! Value Until Time 2
  14,                                     ! Hour 3
  0,                                      ! Minute 3
  0.5,                                    ! Value Until Time 3
  17,                                     ! Hour 4
  0,                                      ! Minute 4
  0.34999999999999998,                    ! Value Until Time 4
  24,                                     ! Hour 5
  0,                                      ! Minute 5
  0.29999999999999999;                    ! Value Until Time 5

OS:ThermostatSetpoint:DualSetpoint,
  {4c10e941-222f-4ce6-97c2-167d512784bb}, !- Handle
  189.1-2009 - Office - BreakRoom - CZ1-3 Thermostat, !- Name
  {09614427-a80e-4def-b3c8-4569d9820c87}, !- Heating Setpoint Temperature Schedule Name
  {b0c1894d-c9fc-4037-9dd0-81db953b7a2a}; !- Cooling Setpoint Temperature Schedule Name

OS:Schedule:Ruleset,
  {09614427-a80e-4def-b3c8-4569d9820c87}, ! Handle
  Medium Office HtgSetp,                  ! Name
  {fe175268-292a-4433-a896-b1196b2fabee}, ! Schedule Type Limits Name
  {8882803d-5d69-4a07-a318-9917a000abb6}, ! Default Day Schedule Name
  {d8e08bcc-fb61-400d-8fcc-652931ec5576}, ! Summer Design Day Schedule Name
  {e7c96e76-f302-4674-8a2a-3dc7a341b8cb}; ! Winter Design Day Schedule Name

OS:ScheduleTypeLimits,
  {fe175268-292a-4433-a896-b1196b2fabee}, !- Handle
  Temperature 36,                         !- Name
  ,                                       !- Lower Limit Value
  ,                                       !- Upper Limit Value
  Continuous,                             !- Numeric Type
  Temperature;                            !- Unit Type

OS:Schedule:Day,
  {8882803d-5d69-4a07-a318-9917a000abb6}, ! Handle
  Medium Office HtgSetp Default Schedule, ! Name
  {fe175268-292a-4433-a896-b1196b2fabee}, ! Schedule Type Limits Name
  ,                                       ! Interpolate to Timestep
  6,                                      !- Hour 1
  0,                                      !- Minute 1
  15.6,                                   !- Value Until Time 1
  22,                                     !- Hour 2
  0,                                      !- Minute 2
  21,                                     !- Value Until Time 2
  24,                                     !- Hour 3
  0,                                      !- Minute 3
  15.6;                                   !- Value Until Time 3

OS:Schedule:Day,
  {d8e08bcc-fb61-400d-8fcc-652931ec5576}, ! Handle
  Medium Office HtgSetp Summer Design Day, ! Name
  {fe175268-292a-4433-a896-b1196b2fabee}, ! Schedule Type Limits Name
  ,                                       ! Interpolate to Timestep
  24,                                     ! Hour 1
  0,                                      ! Minute 1